[General]
network = LEONetwork

ned-path = ../src

sim-time-limit = 10s

